/BATCH
/FILNAME,probe
/PREP7
ET,1,187
MP,EX,1,200000
MP,PRXY,1,0.3
N,1,0,0,0
N,2,10,0,0
N,3,0,10,0
N,4,0,0,10
N,5,5,0,0
N,6,5,5,0
N,7,0,5,0
N,8,0,0,5
N,9,5,0,5
N,10,0,5,5
EN,1,1,2,3,4,5,6,7,8
EMORE,9,10
N,11,100,0,0
N,12,110,0,0
N,13,100,10,0
N,14,100,0,10
N,15,105,0,0
N,16,105,5,0
N,17,100,5,0
N,18,100,0,5
N,19,105,0,5
N,20,100,5,5
EN,2,11,12,13,14,15,16,17,18
EMORE,19,20
N,21,200,0,0
N,22,210,0,0
N,23,200,10,0
N,24,200,0,10
N,25,205,0,0
N,26,205,5,0
N,27,200,5,0
N,28,200,0,5
N,29,205,0,5
N,30,200,5,5
EN,3,21,22,23,24,25,26,27,28
EMORE,29,30
N,31,300,0,0
N,32,310,0,0
N,33,300,10,0
N,34,300,0,10
N,35,305,0,0
N,36,305,5,0
N,37,300,5,0
N,38,300,0,5
N,39,305,0,5
N,40,300,5,5
EN,4,31,32,33,34,35,36,37,38
EMORE,39,40
D,ALL,ALL,0
ALLSEL
SFE,1,1,PRES,0,1
SFE,2,2,PRES,0,1
SFE,3,3,PRES,0,1
SFE,4,4,PRES,0,1
/SOLU
ANTYPE,STATIC
EQSLV,SPARSE
SOLVE
FINISH
/POST1
SET,LAST
CSYS,0
*GET,NMAX,NODE,0,NUM,MAX
*DIM,NID,ARRAY,NMAX
*VFILL,NID(1),RAMP,1,1
*DIM,RFX,ARRAY,NMAX
*DIM,RFY,ARRAY,NMAX
*DIM,RFZ,ARRAY,NMAX
*VGET,RFX(1),NODE,1,RF,FX
*VGET,RFY(1),NODE,1,RF,FY
*VGET,RFZ(1),NODE,1,RF,FZ
*CFOPEN,probe_reactions,csv
*VWRITE
('nid,rfx,rfy,rfz')
*VWRITE,NID(1),RFX(1),RFY(1),RFZ(1)
(F9.0,',',E16.8,',',E16.8,',',E16.8)
*CFCLOS
FINISH
